/*--------------------------------*- C++ -*----------------------------------*\
| =========                 |                                                 |
| \\      /  F ield         | OpenFOAM: The Open Source CFD Toolbox           |
|  \\    /   O peration     | Version:  v1812                                 |
|   \\  /    A nd           | Web:      www.OpenFOAM.com                      |
|    \\/     M anipulation  |                                                 |
\*---------------------------------------------------------------------------*/
FoamFile
{
    version     2.0;
    format      ascii;
    class       dictionary;
    object      dynamicMeshDict;
}
// * * * * * * * * * * * * * * * * * * * * * * * * * * * * * * * * * * * * * //

dynamicFvMesh             dynamicMotionSolverFvMesh;

solver                    displacementLaplacian;

// solver                    displacementSBRStress;

// diffusivity               quadratic inversePointDistance (cylinder);
// diffusivity               exponential 10 inversePointDistance (cylinder);
diffusivity               inverseDistance (cylinder);

// ************************************************************************* //
