/*--------------------------------*- C++ -*----------------------------------*\
| =========                 |                                                 |
| \\      /  F ield         | OpenFOAM: The Open Source CFD Toolbox           |
|  \\    /   O peration     | Version:  v2012                                 |
|   \\  /    A nd           | Website:  www.openfoam.com                      |
|    \\/     M anipulation  |                                                 |
\*---------------------------------------------------------------------------*/
FoamFile
{
    version     2.0;
    format      ascii;
    class       pointVectorField;
    object      pointDisplacement;
}
// * * * * * * * * * * * * * * * * * * * * * * * * * * * * * * * * * * * * * //

dimensions      [0 1 0 0 0 0 0];

internalField   uniform (0 0 0);

boundaryField
{
    cylinder
    {
        type            internalWaveDisplacement;
        amplitude       (
                        (0.0 0.0 0.1)
                        (0.0 0.0 0.1)
                        );
        omega           (
                        0.889
                        1.778
                        );
        phase           (
                        #eval"-pi()/2"
                        #eval"-pi()/2"
                        );
        value           uniform (0 0 0);
    }

    "(walls|top)"
    {
        type            fixedValue;
        value           uniform (0 0 0);
    }

    frontAndBack
    {
        type            empty;
    }
}

// ************************************************************************* //
